Version 4
SHEET 1 1120 1348
WIRE 240 64 240 32
WIRE 400 64 400 32
WIRE 144 176 144 144
WIRE 240 176 240 144
WIRE 400 176 400 144
WIRE 320 224 304 224
WIRE 336 224 320 224
WIRE 144 288 144 256
WIRE 144 288 16 288
WIRE 240 288 240 272
WIRE 320 288 320 224
WIRE 320 288 240 288
WIRE 144 304 144 288
WIRE 240 304 240 288
WIRE -384 320 -384 272
WIRE 544 320 544 288
WIRE 640 320 640 288
WIRE 736 320 736 272
WIRE 400 336 400 272
WIRE 336 352 304 352
WIRE 336 384 336 352
WIRE 144 416 144 400
WIRE 192 416 144 416
WIRE 240 416 240 400
WIRE 240 416 192 416
WIRE -384 432 -384 400
WIRE 192 448 192 416
WIRE 544 448 544 400
WIRE 640 448 640 400
WIRE 736 448 736 400
WIRE 16 496 16 288
WIRE 48 496 16 496
WIRE 144 496 112 496
WIRE 16 560 16 496
WIRE 48 560 16 560
WIRE 144 576 144 496
WIRE 144 576 112 576
WIRE 192 576 192 528
WIRE 192 576 144 576
WIRE 48 592 16 592
WIRE 16 624 16 592
WIRE 400 752 384 752
WIRE 496 752 480 752
WIRE -16 784 -64 784
WIRE 384 800 384 752
WIRE 384 800 224 800
WIRE 416 800 384 800
WIRE 496 816 496 752
WIRE 496 816 480 816
WIRE 544 816 496 816
WIRE -16 832 -16 784
WIRE 80 832 80 800
WIRE 416 832 384 832
WIRE 176 864 176 752
WIRE -64 880 -64 864
WIRE -64 880 -112 880
WIRE -64 896 -64 880
WIRE 224 896 224 800
WIRE 224 896 208 896
WIRE 384 928 384 832
WIRE -192 992 -224 992
WIRE -64 992 -64 976
WIRE -64 992 -112 992
WIRE -16 992 -16 960
WIRE -16 992 -64 992
WIRE 80 992 80 960
FLAG 16 624 0
FLAG 544 448 0
FLAG 640 448 0
FLAG 544 288 V+
FLAG 640 288 V-
FLAG 144 144 V+
FLAG 336 384 0
FLAG 240 32 V+
FLAG 400 32 V+
FLAG -384 432 0
FLAG -384 272 Vlin
FLAG 80 352 Vlin
FLAG 736 448 0
FLAG 736 272 SIGIN
FLAG 80 800 V+
FLAG 80 992 V-
FLAG 400 336 Vexp
FLAG -112 880 0
FLAG -224 992 SIGIN
FLAG 384 928 0
FLAG 176 752 Vexp
FLAG 544 816 SIGOUT
SYMBOL Opamps\\opamp 80 512 R0
SYMATTR InstName U1
SYMBOL npn 80 304 R0
SYMATTR InstName Q1
SYMBOL npn 304 304 M0
SYMATTR InstName Q2
SYMBOL res 176 432 R0
SYMATTR InstName R1
SYMATTR Value 1k
SYMBOL cap 112 480 R90
WINDOW 0 0 32 VBottom 2
WINDOW 3 32 32 VTop 2
SYMATTR InstName C1
SYMATTR Value 10p
SYMBOL res 128 160 R0
WINDOW 0 46 45 VRight 2
WINDOW 3 -18 27 VRight 2
SYMATTR InstName R2
SYMATTR Value 700k
SYMBOL pnp 336 272 M180
SYMATTR InstName Q3
SYMBOL pnp 304 272 R180
WINDOW 0 50 31 Left 2
WINDOW 3 38 55 Left 2
SYMATTR InstName Q4
SYMBOL res 224 48 R0
SYMATTR InstName R3
SYMATTR Value 10
SYMBOL res 384 48 R0
SYMATTR InstName R4
SYMATTR Value 10
SYMBOL voltage 544 304 R0
WINDOW 123 0 0 Left 0
WINDOW 39 0 0 Left 0
SYMATTR InstName V1
SYMATTR Value 15
SYMBOL voltage 640 304 R0
WINDOW 123 0 0 Left 0
WINDOW 39 0 0 Left 0
SYMATTR InstName V2
SYMATTR Value -15
SYMBOL voltage -384 304 R0
WINDOW 123 0 0 Left 0
WINDOW 39 0 0 Left 0
SYMATTR InstName V3
SYMATTR Value PULSE(-100m 100m 0 .5 .5 0 1)
SYMBOL voltage 736 304 R0
WINDOW 123 0 0 Left 0
WINDOW 39 0 0 Left 0
SYMATTR InstName V4
SYMATTR Value SINE(0 1 10k)
SYMBOL OTAs\\LM13700 48 816 R0
SYMATTR InstName U2
SYMBOL res -48 880 R180
WINDOW 0 36 76 Left 2
WINDOW 3 36 40 Left 2
SYMATTR InstName R6
SYMATTR Value 490
SYMBOL res -48 992 R180
WINDOW 0 36 76 Left 2
WINDOW 3 36 40 Left 2
SYMATTR InstName R7
SYMATTR Value 510
SYMBOL res -208 1008 R270
WINDOW 0 32 56 VTop 2
WINDOW 3 0 56 VBottom 2
SYMATTR InstName R8
SYMATTR Value 30k
SYMBOL Opamps\\opamp 448 752 R0
SYMATTR InstName U3
SYMBOL res 496 736 R90
WINDOW 0 0 56 VBottom 2
WINDOW 3 32 56 VTop 2
SYMATTR InstName R10
SYMATTR Value 3.5k
TEXT -400 520 Left 2 !.lib opamp.sub
TEXT -400 496 Left 2 !.tran 2
TEXT -400 544 Left 2 !.lib LM13700.sub
