Version 4
SHEET 1 880 1348
WIRE -608 144 -608 112
WIRE -448 144 -448 112
WIRE -704 256 -704 224
WIRE -608 256 -608 224
WIRE -448 256 -448 224
WIRE -528 304 -544 304
WIRE -512 304 -528 304
WIRE -704 368 -704 336
WIRE -704 368 -832 368
WIRE -608 368 -608 352
WIRE -528 368 -528 304
WIRE -528 368 -608 368
WIRE -704 384 -704 368
WIRE -608 384 -608 368
WIRE -448 416 -448 352
WIRE -512 432 -544 432
WIRE -512 464 -512 432
WIRE -960 496 -960 448
WIRE -704 496 -704 480
WIRE -656 496 -704 496
WIRE -608 496 -608 480
WIRE -608 496 -656 496
WIRE -656 528 -656 496
WIRE -832 576 -832 368
WIRE -800 576 -832 576
WIRE -704 576 -736 576
WIRE -960 608 -960 576
WIRE -832 640 -832 576
WIRE -800 640 -832 640
WIRE -704 656 -704 576
WIRE -704 656 -736 656
WIRE -656 656 -656 608
WIRE -656 656 -704 656
WIRE -800 672 -832 672
WIRE -832 704 -832 672
WIRE -144 752 -224 752
WIRE 384 752 -144 752
WIRE -704 816 -864 816
WIRE -288 816 -624 816
WIRE 288 816 272 816
WIRE 384 816 384 752
WIRE 384 816 368 816
WIRE -112 832 -144 832
WIRE -16 832 -16 800
WIRE 80 864 80 832
WIRE 240 864 112 864
WIRE 272 864 272 816
WIRE 304 864 272 864
WIRE -384 880 -400 880
WIRE -288 880 -288 816
WIRE -288 880 -304 880
WIRE 384 880 384 816
WIRE 384 880 368 880
WIRE 432 880 384 880
WIRE 576 880 496 880
WIRE 112 896 112 864
WIRE 240 896 240 864
WIRE 272 896 240 896
WIRE 304 896 272 896
WIRE -864 912 -864 816
WIRE -832 912 -864 912
WIRE -736 912 -736 880
WIRE -864 928 -864 912
WIRE 272 928 272 896
WIRE -640 944 -640 912
WIRE -448 944 -608 944
WIRE -400 944 -400 880
WIRE -368 944 -400 944
WIRE -288 960 -288 880
WIRE -288 960 -304 960
WIRE -256 960 -288 960
WIRE -144 960 -176 960
WIRE -112 960 -144 960
WIRE -608 976 -608 944
WIRE -448 976 -448 944
WIRE -400 976 -448 976
WIRE -368 976 -400 976
WIRE -144 976 -144 960
WIRE -400 992 -400 976
WIRE -16 992 -16 960
WIRE -1552 1024 -1552 992
WIRE -1456 1024 -1456 992
WIRE -1360 1024 -1360 976
WIRE 272 1024 272 992
WIRE -976 1040 -1008 1040
WIRE -864 1040 -896 1040
WIRE -832 1040 -864 1040
WIRE -864 1056 -864 1040
WIRE -736 1072 -736 1040
WIRE -400 1088 -400 1056
WIRE -224 1088 -224 752
WIRE -224 1088 -400 1088
WIRE -144 1088 -144 1056
WIRE -1552 1152 -1552 1104
WIRE -1456 1152 -1456 1104
WIRE -1360 1152 -1360 1104
WIRE -864 1168 -864 1136
FLAG -832 704 0
FLAG -1552 1152 0
FLAG -1456 1152 0
FLAG -1552 992 V+
FLAG -1456 992 V-
FLAG -704 224 V+
FLAG -512 464 0
FLAG -608 112 V+
FLAG -448 112 V+
FLAG -960 608 0
FLAG -960 448 Vlin
FLAG -768 432 Vlin
FLAG -1360 1152 0
FLAG -1360 976 SIGIN
FLAG -736 880 V+
FLAG -736 1072 V-
FLAG -448 416 Vexp
FLAG -640 912 Vexp
FLAG -864 1008 0
FLAG -864 1168 0
FLAG -144 1088 0
FLAG -144 912 0
FLAG 272 1024 0
FLAG 80 832 Vexp
FLAG -16 800 V+
FLAG -16 992 V-
FLAG -1008 1040 SIGIN
IOPIN -1008 1040 In
FLAG 496 960 0
FLAG 576 880 SIGOUT
IOPIN 576 880 Out
SYMBOL Opamps\\opamp -768 592 R0
SYMATTR InstName U1
SYMBOL npn -768 384 R0
SYMATTR InstName Q1
SYMBOL npn -544 384 M0
SYMATTR InstName Q2
SYMBOL res -672 512 R0
SYMATTR InstName R1
SYMATTR Value 1k
SYMBOL cap -736 560 R90
WINDOW 0 0 32 VBottom 2
WINDOW 3 32 32 VTop 2
SYMATTR InstName C1
SYMATTR Value 10p
SYMBOL res -720 240 R0
WINDOW 0 46 45 VRight 2
WINDOW 3 -18 27 VRight 2
SYMATTR InstName R2
SYMATTR Value 350k
SYMBOL pnp -512 352 M180
SYMATTR InstName Q3
SYMBOL pnp -544 352 R180
WINDOW 0 50 31 Left 2
WINDOW 3 38 55 Left 2
SYMATTR InstName Q4
SYMBOL res -624 128 R0
SYMATTR InstName R3
SYMATTR Value 10
SYMBOL res -464 128 R0
SYMATTR InstName R4
SYMATTR Value 10
SYMBOL voltage -1552 1008 R0
WINDOW 123 0 0 Left 0
WINDOW 39 0 0 Left 0
SYMATTR InstName V1
SYMATTR Value 15
SYMBOL voltage -1456 1008 R0
WINDOW 123 0 0 Left 0
WINDOW 39 0 0 Left 0
SYMATTR InstName V2
SYMATTR Value -15
SYMBOL voltage -960 480 R0
WINDOW 123 0 0 Left 0
WINDOW 39 0 0 Left 0
WINDOW 3 -354 95 Left 2
SYMATTR InstName V3
SYMATTR Value PULSE(-100m 100m 0 .5 .5 0 1)
SYMBOL voltage -1360 1008 R0
WINDOW 123 0 0 Left 0
WINDOW 39 0 0 Left 0
SYMATTR InstName V4
SYMATTR Value PULSE(-1 1 0 0 0 .0005 .001)
SYMBOL OTAs\\LM13700 -768 896 R0
SYMATTR InstName U2
SYMBOL res -880 1024 R90
WINDOW 0 0 56 VBottom 2
WINDOW 3 32 56 VTop 2
SYMATTR InstName R5
SYMATTR Value 100k
SYMBOL res -848 1152 R180
WINDOW 0 36 76 Left 2
WINDOW 3 36 40 Left 2
SYMATTR InstName R6
SYMATTR Value 2k
SYMBOL res -720 832 R270
WINDOW 0 32 56 VTop 2
WINDOW 3 0 56 VBottom 2
SYMATTR InstName R7
SYMATTR Value 100k
SYMBOL res -880 912 R0
SYMATTR InstName R8
SYMATTR Value 2k
SYMBOL Opamps\\opamp -336 896 R0
SYMATTR InstName U3
SYMBOL cap -416 992 R0
SYMATTR InstName C3
SYMATTR Value 1000p
SYMBOL res -160 736 R0
SYMATTR InstName R10
SYMATTR Value 100k
SYMBOL res -128 928 R180
WINDOW 0 36 76 Left 2
WINDOW 3 36 40 Left 2
SYMATTR InstName R11
SYMATTR Value 2k
SYMBOL res -272 976 R270
WINDOW 0 32 56 VTop 2
WINDOW 3 0 56 VBottom 2
SYMATTR InstName R12
SYMATTR Value 100k
SYMBOL res -160 960 R0
SYMATTR InstName R13
SYMATTR Value 2k
SYMBOL OTAs\\LM13700 -48 816 R0
SYMATTR InstName U4
SYMBOL Opamps\\opamp 336 816 R0
SYMATTR InstName U5
SYMBOL cap 256 928 R0
SYMATTR InstName C4
SYMATTR Value 2000p
SYMBOL res -288 864 R90
WINDOW 0 0 56 VBottom 2
WINDOW 3 32 56 VTop 2
SYMATTR InstName R9
SYMATTR Value 10k
SYMBOL res 384 800 R90
WINDOW 0 0 56 VBottom 2
WINDOW 3 32 56 VTop 2
SYMATTR InstName R14
SYMATTR Value 10k
SYMBOL cap 496 864 R90
WINDOW 0 0 32 VBottom 2
WINDOW 3 32 32 VTop 2
SYMATTR InstName C2
SYMATTR Value 1µ
SYMBOL res 480 864 R0
SYMATTR InstName R15
SYMATTR Value 15k
TEXT -1576 800 Left 2 !.lib opamp.sub
TEXT -1576 776 Left 2 !.tran 2
TEXT -1576 824 Left 2 !.lib LM13700.sub
