Version 4
SHEET 1 880 1348
WIRE 240 64 240 32
WIRE 400 64 400 32
WIRE 144 176 144 144
WIRE 240 176 240 144
WIRE 400 176 400 144
WIRE 320 224 304 224
WIRE 336 224 320 224
WIRE 144 288 144 256
WIRE 144 288 16 288
WIRE 240 288 240 272
WIRE 320 288 320 224
WIRE 320 288 240 288
WIRE 144 304 144 288
WIRE 240 304 240 288
WIRE -496 320 -496 272
WIRE 400 336 400 272
WIRE 656 336 656 304
WIRE 752 336 752 304
WIRE 336 352 304 352
WIRE 336 384 336 352
WIRE 144 416 144 400
WIRE 192 416 144 416
WIRE 240 416 240 400
WIRE 240 416 192 416
WIRE -496 432 -496 400
WIRE 192 448 192 416
WIRE 656 464 656 416
WIRE 752 464 752 416
WIRE 16 496 16 288
WIRE 48 496 16 496
WIRE 144 496 112 496
WIRE 16 560 16 496
WIRE 48 560 16 560
WIRE 144 576 144 496
WIRE 144 576 112 576
WIRE 192 576 192 528
WIRE 192 576 144 576
WIRE 48 592 16 592
WIRE 16 624 16 592
WIRE -368 768 -912 768
WIRE 320 784 -224 784
WIRE -912 800 -912 768
WIRE -224 816 -224 784
WIRE -368 832 -368 768
WIRE 320 848 320 784
WIRE -448 896 -448 832
WIRE -448 896 -592 896
WIRE -432 896 -448 896
WIRE -912 912 -912 880
WIRE -832 912 -912 912
WIRE -736 912 -736 880
WIRE -368 912 -368 832
WIRE -352 912 -368 912
WIRE 240 912 240 848
WIRE 240 912 96 912
WIRE 256 912 240 912
WIRE -432 928 -464 928
WIRE -224 928 -224 896
WIRE -144 928 -224 928
WIRE -48 928 -48 896
WIRE 320 928 320 848
WIRE -640 944 -640 832
WIRE 256 944 224 944
WIRE -464 960 -464 928
WIRE 48 960 48 848
WIRE -592 976 -592 896
WIRE -592 976 -608 976
WIRE 224 976 224 944
WIRE -592 992 -592 976
WIRE 96 992 96 912
WIRE 96 992 80 992
WIRE 96 1008 96 992
WIRE -1360 1024 -1360 976
WIRE -1040 1040 -1120 1040
WIRE -848 1040 -960 1040
WIRE -832 1040 -848 1040
WIRE -352 1056 -352 912
WIRE -160 1056 -272 1056
WIRE -144 1056 -160 1056
WIRE -736 1072 -736 1040
WIRE -912 1088 -912 912
WIRE -848 1088 -848 1040
WIRE -592 1088 -592 1056
WIRE -48 1088 -48 1056
WIRE -224 1104 -224 928
WIRE -160 1104 -160 1056
WIRE 96 1120 96 1072
WIRE -1360 1152 -1360 1104
WIRE -912 1184 -912 1168
WIRE -848 1184 -848 1168
WIRE -848 1184 -912 1184
WIRE -224 1200 -224 1184
WIRE -160 1200 -160 1184
WIRE -160 1200 -224 1200
WIRE -848 1216 -848 1184
WIRE -160 1232 -160 1200
FLAG 16 624 0
FLAG 656 464 0
FLAG 752 464 0
FLAG 656 304 V+
FLAG 752 304 V-
FLAG 144 144 V+
FLAG 336 384 0
FLAG 240 32 V+
FLAG 400 32 V+
FLAG -496 432 0
FLAG -496 272 Vlin
FLAG 80 352 Vlin
FLAG -1360 1152 0
FLAG -1360 976 SIGIN
FLAG -1120 1040 SIGIN
FLAG -848 1216 0
FLAG -736 880 V+
FLAG -736 1072 V-
FLAG 400 336 Vexp
FLAG -640 832 Vexp
FLAG -464 960 0
FLAG -160 1232 0
FLAG -48 896 V+
FLAG -48 1088 V-
FLAG 48 848 Vexp
FLAG 224 976 0
FLAG 96 1120 V-
FLAG -592 1088 V-
SYMBOL Opamps\\opamp 80 512 R0
SYMATTR InstName U1
SYMBOL npn 80 304 R0
SYMATTR InstName Q1
SYMBOL npn 304 304 M0
SYMATTR InstName Q2
SYMBOL res 176 432 R0
SYMATTR InstName R1
SYMATTR Value 1k
SYMBOL cap 112 480 R90
WINDOW 0 0 32 VBottom 2
WINDOW 3 32 32 VTop 2
SYMATTR InstName C1
SYMATTR Value 10p
SYMBOL res 128 160 R0
WINDOW 0 46 45 VRight 2
WINDOW 3 -18 27 VRight 2
SYMATTR InstName R2
SYMATTR Value 350k
SYMBOL pnp 336 272 M180
SYMATTR InstName Q3
SYMBOL pnp 304 272 R180
WINDOW 0 50 31 Left 2
WINDOW 3 38 55 Left 2
SYMATTR InstName Q4
SYMBOL res 224 48 R0
SYMATTR InstName R3
SYMATTR Value 10
SYMBOL res 384 48 R0
SYMATTR InstName R4
SYMATTR Value 10
SYMBOL voltage 656 320 R0
WINDOW 123 0 0 Left 0
WINDOW 39 0 0 Left 0
SYMATTR InstName V1
SYMATTR Value 15
SYMBOL voltage 752 320 R0
WINDOW 123 0 0 Left 0
WINDOW 39 0 0 Left 0
SYMATTR InstName V2
SYMATTR Value -15
SYMBOL voltage -496 304 R0
WINDOW 123 0 0 Left 0
WINDOW 39 0 0 Left 0
SYMATTR InstName V3
SYMATTR Value PULSE(-100m 100m 0 0 1 0 1)
SYMBOL voltage -1360 1008 R0
WINDOW 123 0 0 Left 0
WINDOW 39 0 0 Left 0
SYMATTR InstName V4
SYMATTR Value PULSE(-1 1 0 0 0 .0005 .001)
SYMBOL res -944 1024 R90
WINDOW 0 0 56 VBottom 2
WINDOW 3 32 56 VTop 2
SYMATTR InstName R5
SYMATTR Value 100k
SYMBOL OTAs\\LM13700 -768 896 R0
SYMATTR InstName U2
SYMBOL res -928 784 R0
SYMATTR InstName R6
SYMATTR Value 100k
SYMBOL res -928 1072 R0
SYMATTR InstName R8
SYMATTR Value 2k
SYMBOL res -864 1072 R0
SYMATTR InstName R9
SYMATTR Value 2k
SYMBOL cap -608 992 R0
SYMATTR InstName C3
SYMATTR Value 1500p
SYMBOL res -352 816 R90
WINDOW 0 0 56 VBottom 2
WINDOW 3 32 56 VTop 2
SYMATTR InstName R7
SYMATTR Value 2k
SYMBOL Opamps\\opamp -400 848 R0
SYMATTR InstName U4
SYMBOL res -256 1040 R90
WINDOW 0 0 56 VBottom 2
WINDOW 3 32 56 VTop 2
SYMATTR InstName R10
SYMATTR Value 100k
SYMBOL OTAs\\LM13700 -80 912 R0
SYMATTR InstName U3
SYMBOL res -240 800 R0
SYMATTR InstName R11
SYMATTR Value 100k
SYMBOL res -240 1088 R0
SYMATTR InstName R12
SYMATTR Value 2k
SYMBOL res -176 1088 R0
SYMATTR InstName R13
SYMATTR Value 2k
SYMBOL cap 80 1008 R0
SYMATTR InstName C2
SYMATTR Value 1500p
SYMBOL res 336 832 R90
WINDOW 0 0 56 VBottom 2
WINDOW 3 32 56 VTop 2
SYMATTR InstName R14
SYMATTR Value 2k
SYMBOL Opamps\\opamp 288 864 R0
SYMATTR InstName U5
TEXT -400 520 Left 2 !.lib opamp.sub
TEXT -400 496 Left 2 !.tran 2
TEXT -400 544 Left 2 !.lib LM13700.sub
